
     RDKit          3D

 44 48  0  0  0  0  0  0  0  0999 V2000
   -5.6883    3.2105    0.6105 C   0  0  0  0  0  0  0  0  0  0  0  0
   -5.4873    1.8759    0.1017 N   0  0  0  0  0  0  0  0  0  0  0  0
   -4.3247    1.1656    0.0996 C   0  0  0  0  0  0  0  0  0  0  0  0
   -4.6076   -0.0546   -0.4846 C   0  0  0  0  0  0  0  0  0  0  0  0
   -5.9842    0.0382   -0.7962 C   0  0  0  0  0  0  0  0  0  0  0  0
   -6.5219    1.2090   -0.4413 N   0  0  0  0  0  0  0  0  0  0  0  0
   -3.6363   -1.1217   -0.6853 C   0  0  0  0  0  0  0  0  0  0  0  0
   -4.0186   -2.3285   -1.2832 C   0  0  0  0  0  0  0  0  0  0  0  0
   -3.0834   -3.3484   -1.4727 C   0  0  0  0  0  0  0  0  0  0  0  0
   -1.8030   -3.0569   -1.0305 C   0  0  0  0  0  0  0  0  0  0  0  0
   -1.4718   -1.8424   -0.4428 C   0  0  0  0  0  0  0  0  0  0  0  0
   -2.3781   -0.8488   -0.2561 N   0  0  0  0  0  0  0  0  0  0  0  0
   -0.0892   -1.9267   -0.1311 C   0  0  0  0  0  0  0  0  0  0  0  0
    0.3196   -3.1768   -0.5484 C   0  0  0  0  0  0  0  0  0  0  0  0
   -0.7159   -3.8709   -1.0959 O   0  0  0  0  0  0  0  0  0  0  0  0
    0.7270   -0.9012    0.4992 C   0  0  0  0  0  0  0  0  0  0  0  0
    0.3137    0.3869    0.8941 C   0  0  0  0  0  0  0  0  0  0  0  0
    1.3053    1.0948    1.4469 N   0  0  0  0  0  0  0  0  0  0  0  0
    2.3630    0.2573    1.3892 N   0  0  0  0  0  0  0  0  0  0  0  0
    2.0583   -0.9606    0.8427 C   0  0  0  0  0  0  0  0  0  0  0  0
    3.6517    0.6721    1.9297 C   0  0  0  0  0  0  0  0  0  0  0  0
    4.6818    0.8662    0.8444 C   0  0  0  0  0  0  0  0  0  0  0  0
    4.5273    1.8841   -0.1095 C   0  0  0  0  0  0  0  0  0  0  0  0
    5.4804    2.0669   -1.1120 C   0  0  0  0  0  0  0  0  0  0  0  0
    6.5989    1.2383   -1.1704 C   0  0  0  0  0  0  0  0  0  0  0  0
    6.7661    0.2265   -0.2268 C   0  0  0  0  0  0  0  0  0  0  0  0
    5.8138    0.0405    0.7770 C   0  0  0  0  0  0  0  0  0  0  0  0
   -6.0299    3.8447   -0.2113 H   0  0  0  0  0  0  0  0  0  0  0  0
   -4.7464    3.5935    1.0108 H   0  0  0  0  0  0  0  0  0  0  0  0
   -6.4404    3.1678    1.4022 H   0  0  0  0  0  0  0  0  0  0  0  0
   -3.4066    1.5703    0.5033 H   0  0  0  0  0  0  0  0  0  0  0  0
   -6.6250   -0.6951   -1.2673 H   0  0  0  0  0  0  0  0  0  0  0  0
   -5.0408   -2.4945   -1.6085 H   0  0  0  0  0  0  0  0  0  0  0  0
   -3.3322   -4.2971   -1.9296 H   0  0  0  0  0  0  0  0  0  0  0  0
    1.2661   -3.6986   -0.5301 H   0  0  0  0  0  0  0  0  0  0  0  0
   -0.6638    0.8436    0.8068 H   0  0  0  0  0  0  0  0  0  0  0  0
    2.8052   -1.7345    0.7397 H   0  0  0  0  0  0  0  0  0  0  0  0
    3.9567   -0.1016    2.6438 H   0  0  0  0  0  0  0  0  0  0  0  0
    3.5114    1.6038    2.4899 H   0  0  0  0  0  0  0  0  0  0  0  0
    3.6557    2.5372   -0.0784 H   0  0  0  0  0  0  0  0  0  0  0  0
    5.3479    2.8557   -1.8482 H   0  0  0  0  0  0  0  0  0  0  0  0
    7.3405    1.3817   -1.9520 H   0  0  0  0  0  0  0  0  0  0  0  0
    7.6404   -0.4179   -0.2732 H   0  0  0  0  0  0  0  0  0  0  0  0
    5.9649   -0.7541    1.5044 H   0  0  0  0  0  0  0  0  0  0  0  0
  1  2  1  0
  2  3  1  0
  3  4  2  0
  4  5  1  0
  5  6  2  0
  4  7  1  0
  7  8  1  0
  8  9  2  0
  9 10  1  0
 10 11  2  0
 11 12  1  0
 11 13  1  0
 13 14  2  0
 14 15  1  0
 13 16  1  0
 16 17  1  0
 17 18  2  0
 18 19  1  0
 19 20  1  0
 19 21  1  0
 21 22  1  0
 22 23  2  0
 23 24  1  0
 24 25  2  0
 25 26  1  0
 26 27  2  0
  6  2  1  0
 12  7  2  0
 15 10  1  0
 20 16  2  0
 27 22  1  0
  1 28  1  0
  1 29  1  0
  1 30  1  0
  3 31  1  0
  5 32  1  0
  8 33  1  0
  9 34  1  0
 14 35  1  0
 17 36  1  0
 20 37  1  0
 21 38  1  0
 21 39  1  0
 23 40  1  0
 24 41  1  0
 25 42  1  0
 26 43  1  0
 27 44  1  0
M  END
$$$$
