@<TRIPOS>MOLECULE
*****
 44 48 0 0 0
SMALL
GASTEIGER

@<TRIPOS>ATOM
      1 C          -5.6883    3.2105    0.6105 C.3     1  UNL1        0.0302
      2 N          -5.4873    1.8759    0.1017 N.ar    1  UNL1       -0.2738
      3 C          -4.3247    1.1656    0.0996 C.ar    1  UNL1        0.0343
      4 C          -4.6076   -0.0546   -0.4846 C.ar    1  UNL1        0.0378
      5 C          -5.9842    0.0382   -0.7962 C.ar    1  UNL1        0.0585
      6 N          -6.5219    1.2090   -0.4413 N.ar    1  UNL1       -0.1792
      7 C          -3.6363   -1.1217   -0.6853 C.ar    1  UNL1        0.0749
      8 C          -4.0186   -2.3285   -1.2832 C.ar    1  UNL1       -0.0321
      9 C          -3.0834   -3.3484   -1.4727 C.ar    1  UNL1       -0.0152
     10 C          -1.8030   -3.0569   -1.0305 C.ar    1  UNL1        0.1536
     11 C          -1.4718   -1.8424   -0.4428 C.ar    1  UNL1        0.1173
     12 N          -2.3781   -0.8488   -0.2561 N.ar    1  UNL1       -0.2428
     13 C          -0.0892   -1.9267   -0.1311 C.ar    1  UNL1        0.0488
     14 C           0.3196   -3.1768   -0.5484 C.ar    1  UNL1        0.1025
     15 O          -0.7159   -3.8709   -1.0959 O.2     1  UNL1       -0.4607
     16 C           0.7270   -0.9012    0.4992 C.ar    1  UNL1        0.0246
     17 C           0.3137    0.3869    0.8941 C.ar    1  UNL1        0.0573
     18 N           1.3053    1.0948    1.4469 N.ar    1  UNL1       -0.1787
     19 N           2.3630    0.2573    1.3892 N.ar    1  UNL1       -0.2665
     20 C           2.0583   -0.9606    0.8427 C.ar    1  UNL1        0.0337
     21 C           3.6517    0.6721    1.9297 C.3     1  UNL1        0.0665
     22 C           4.6818    0.8662    0.8444 C.ar    1  UNL1       -0.0261
     23 C           4.5273    1.8841   -0.1095 C.ar    1  UNL1       -0.0568
     24 C           5.4804    2.0669   -1.1120 C.ar    1  UNL1       -0.0614
     25 C           6.5989    1.2383   -1.1704 C.ar    1  UNL1       -0.0617
     26 C           6.7661    0.2265   -0.2268 C.ar    1  UNL1       -0.0614
     27 C           5.8138    0.0405    0.7770 C.ar    1  UNL1       -0.0568
     28 H          -6.0299    3.8447   -0.2113 H       1  UNL1        0.0473
     29 H          -4.7464    3.5935    1.0108 H       1  UNL1        0.0473
     30 H          -6.4404    3.1678    1.4022 H       1  UNL1        0.0473
     31 H          -3.4066    1.5703    0.5033 H       1  UNL1        0.0833
     32 H          -6.6250   -0.6951   -1.2673 H       1  UNL1        0.0854
     33 H          -5.0408   -2.4945   -1.6085 H       1  UNL1        0.0640
     34 H          -3.3322   -4.2971   -1.9296 H       1  UNL1        0.0656
     35 H           1.2661   -3.6986   -0.5301 H       1  UNL1        0.1036
     36 H          -0.6638    0.8436    0.8068 H       1  UNL1        0.0854
     37 H           2.8052   -1.7345    0.7397 H       1  UNL1        0.0832
     38 H           3.9567   -0.1016    2.6438 H       1  UNL1        0.0558
     39 H           3.5114    1.6038    2.4899 H       1  UNL1        0.0558
     40 H           3.6557    2.5372   -0.0784 H       1  UNL1        0.0621
     41 H           5.3479    2.8557   -1.8482 H       1  UNL1        0.0618
     42 H           7.3405    1.3817   -1.9520 H       1  UNL1        0.0618
     43 H           7.6404   -0.4179   -0.2732 H       1  UNL1        0.0618
     44 H           5.9649   -0.7541    1.5044 H       1  UNL1        0.0621
@<TRIPOS>BOND
     1     1     2    1
     2     2     3   ar
     3     3     4   ar
     4     4     5   ar
     5     5     6   ar
     6     4     7    1
     7     7     8   ar
     8     8     9   ar
     9     9    10   ar
    10    10    11   ar
    11    11    12   ar
    12    11    13   ar
    13    13    14   ar
    14    14    15   ar
    15    13    16    1
    16    16    17   ar
    17    17    18   ar
    18    18    19   ar
    19    19    20   ar
    20    19    21    1
    21    21    22    1
    22    22    23   ar
    23    23    24   ar
    24    24    25   ar
    25    25    26   ar
    26    26    27   ar
    27     6     2   ar
    28    12     7   ar
    29    15    10   ar
    30    20    16   ar
    31    27    22   ar
    32     1    28    1
    33     1    29    1
    34     1    30    1
    35     3    31    1
    36     5    32    1
    37     8    33    1
    38     9    34    1
    39    14    35    1
    40    17    36    1
    41    20    37    1
    42    21    38    1
    43    21    39    1
    44    23    40    1
    45    24    41    1
    46    25    42    1
    47    26    43    1
    48    27    44    1
