@<TRIPOS>MOLECULE
*****
 44 48 0 0 0
SMALL
GASTEIGER

@<TRIPOS>ATOM
      1 C          20.5790   42.8130   10.7670 C.ar    1  UNL1        0.0749
      2 C          20.9250   42.0530    9.6520 C.ar    1  UNL1       -0.0321
      3 C          20.5540   42.4990    8.3920 C.ar    1  UNL1       -0.0152
      4 N          21.7350   41.2180   13.8820 N.ar    1  UNL1       -0.1792
      5 C          19.8640   43.6930    8.2890 C.ar    1  UNL1        0.1536
      6 C          19.5480   44.3850    9.4610 C.ar    1  UNL1        0.1173
      7 N          16.6850   47.8560   11.0290 N.ar    1  UNL1       -0.1787
      8 C          18.7400   45.5060    9.0920 C.ar    1  UNL1        0.0488
      9 C          18.6860   45.4300    7.7400 C.ar    1  UNL1        0.1025
     10 C          18.1610   46.4670   10.0220 C.ar    1  UNL1        0.0246
     11 C          16.9690   47.2160    9.9130 C.ar    1  UNL1        0.0573
     12 N          17.7050   47.5410   11.8670 N.ar    1  UNL1       -0.2665
     13 C          17.7610   48.1070   13.2120 C.3     1  UNL1        0.0665
     14 C          18.0020   47.0710   14.2870 C.ar    1  UNL1       -0.0261
     15 C          17.3340   45.8540   14.2810 C.ar    1  UNL1       -0.0568
     16 N          19.9010   43.9710   10.6810 N.ar    1  UNL1       -0.2428
     17 C          20.7080   42.4420   15.7170 C.3     1  UNL1        0.0302
     18 N          20.9490   42.2410   14.3000 N.ar    1  UNL1       -0.2738
     19 C          21.7040   41.3110   12.5720 C.ar    1  UNL1        0.0585
     20 C          20.9170   42.3930   12.1340 C.ar    1  UNL1        0.0378
     21 C          20.4580   42.9630   13.2860 C.ar    1  UNL1        0.0343
     22 O          19.3610   44.3620    7.2110 O.2     1  UNL1       -0.4607
     23 C          18.5910   46.7080   11.3090 C.ar    1  UNL1        0.0337
     24 C          18.8350   47.3530   15.3550 C.ar    1  UNL1       -0.0568
     25 C          18.9470   46.4680   16.4220 C.ar    1  UNL1       -0.0614
     26 C          18.2600   45.2810   16.4090 C.ar    1  UNL1       -0.0617
     27 C          17.4810   44.9600   15.3240 C.ar    1  UNL1       -0.0614
     28 H          21.4842   41.1130    9.7690 H       1  UNL1        0.0640
     29 H          20.8034   41.9152    7.4937 H       1  UNL1        0.0656
     30 H          18.1469   46.1624    7.1212 H       1  UNL1        0.1036
     31 H          16.3509   47.2599    9.0042 H       1  UNL1        0.0854
     32 H          18.5775   48.8433   13.2473 H       1  UNL1        0.0558
     33 H          16.7814   48.5646   13.4141 H       1  UNL1        0.0558
     34 H          16.6792   45.5982   13.4349 H       1  UNL1        0.0621
     35 H          21.4247   41.8442   16.2992 H       1  UNL1        0.0473
     36 H          20.8336   43.5068   15.9629 H       1  UNL1        0.0473
     37 H          19.6831   42.1273   15.9629 H       1  UNL1        0.0473
     38 H          22.2320   40.6229   11.8954 H       1  UNL1        0.0854
     39 H          19.8084   43.8471   13.3657 H       1  UNL1        0.0833
     40 H          19.4914   46.2942   11.7866 H       1  UNL1        0.0832
     41 H          19.4152   48.2875   15.3603 H       1  UNL1        0.0621
     42 H          19.5886   46.7208   17.2790 H       1  UNL1        0.0618
     43 H          18.3323   44.5903   17.2621 H       1  UNL1        0.0618
     44 H          16.9715   43.9859   15.2854 H       1  UNL1        0.0618
@<TRIPOS>BOND
     1     2     1   ar
     2     3     2   ar
     3     5     3   ar
     4     6     5   ar
     5     8     6   ar
     6     9     8   ar
     7    10     8    1
     8    11    10   ar
     9    11     7   ar
    10    12     7   ar
    11    13    12    1
    12    14    13    1
    13    15    14   ar
    14    16     1   ar
    15    16     6   ar
    16    18    17    1
    17    18     4   ar
    18    19     4   ar
    19    20     1    1
    20    20    19   ar
    21    21    20   ar
    22    21    18   ar
    23    22     9   ar
    24    22     5   ar
    25    23    10   ar
    26    23    12   ar
    27    24    14   ar
    28    25    24   ar
    29    26    25   ar
    30    27    15   ar
    31    27    26   ar
    32     2    28    1
    33     3    29    1
    34     9    30    1
    35    11    31    1
    36    13    32    1
    37    13    33    1
    38    15    34    1
    39    17    35    1
    40    17    36    1
    41    17    37    1
    42    19    38    1
    43    21    39    1
    44    23    40    1
    45    24    41    1
    46    25    42    1
    47    26    43    1
    48    27    44    1
