@<TRIPOS>MOLECULE
*****
   44    48     1     0     0
SMALL
gas


@<TRIPOS>ATOM
      1 C           -5.6880     3.2110     0.6110 c3         1 UNL       0.022551
      2 N           -5.4870     1.8760     0.1020 na         1 UNL      -0.235229
      3 C1          -4.3250     1.1660     0.1000 cc         1 UNL       0.025110
      4 C2          -4.6080    -0.0550    -0.4850 cd         1 UNL       0.035759
      5 C3          -5.9840     0.0380    -0.7960 cd         1 UNL       0.055956
      6 N1          -6.5220     1.2090    -0.4410 nc         1 UNL      -0.189682
      7 C4          -3.6360    -1.1220    -0.6850 ca         1 UNL       0.074057
      8 C5          -4.0190    -2.3290    -1.2830 ca         1 UNL      -0.032976
      9 C6          -3.0830    -3.3480    -1.4730 ca         1 UNL      -0.026842
     10 C7          -1.8030    -3.0570    -1.0300 ca         1 UNL       0.107646
     11 C8          -1.4720    -1.8420    -0.4430 ca         1 UNL       0.104386
     12 N2          -2.3780    -0.8490    -0.2560 nb         1 UNL      -0.244800
     13 C9          -0.0890    -1.9270    -0.1310 cc         1 UNL       0.036465
     14 C10          0.3200    -3.1770    -0.5480 cd         1 UNL       0.056180
     15 O           -0.7160    -3.8710    -1.0960 os         1 UNL      -0.315141
     16 C11          0.7270    -0.9010     0.4990 cc         1 UNL       0.021593
     17 C12          0.3140     0.3870     0.8940 cc         1 UNL       0.054564
     18 N3           1.3050     1.0950     1.4470 nd         1 UNL      -0.189147
     19 N4           2.3630     0.2570     1.3890 na         1 UNL      -0.227791
     20 C13          2.0580    -0.9610     0.8430 cd         1 UNL       0.024417
     21 C14          3.6520     0.6720     1.9300 c3         1 UNL       0.058872
     22 C15          4.6820     0.8660     0.8440 ca         1 UNL      -0.028629
     23 C16          4.5270     1.8840    -0.1100 ca         1 UNL      -0.057376
     24 C17          5.4800     2.0670    -1.1120 ca         1 UNL      -0.061937
     25 C18          6.5990     1.2380    -1.1700 ca         1 UNL      -0.062251
     26 C19          6.7660     0.2270    -0.2270 ca         1 UNL      -0.061937
     27 C20          5.8140     0.0410     0.7770 ca         1 UNL      -0.057376
     28 H           -6.0300     3.8450    -0.2110 h1         1 UNL       0.045354
     29 H1          -4.7460     3.5940     1.0110 h1         1 UNL       0.045354
     30 H2          -6.4400     3.1680     1.4020 h1         1 UNL       0.045354
     31 H3          -3.4070     1.5700     0.5030 h4         1 UNL       0.081705
     32 H4          -6.6250    -0.6950    -1.2670 h4         1 UNL       0.086494
     33 H5          -5.0410    -2.4940    -1.6090 ha         1 UNL       0.064679
     34 H6          -3.3320    -4.2970    -1.9300 ha         1 UNL       0.065226
     35 H7           1.2660    -3.6990    -0.5300 h4         1 UNL       0.090933
     36 H8          -0.6640     0.8440     0.8070 h4         1 UNL       0.086437
     37 H9           2.8050    -1.7340     0.7400 h4         1 UNL       0.081676
     38 H10          3.9570    -0.1020     2.6440 h1         1 UNL       0.054127
     39 H11          3.5110     1.6040     2.4900 h1         1 UNL       0.054127
     40 H12          3.6560     2.5370    -0.0780 ha         1 UNL       0.062627
     41 H13          5.3480     2.8560    -1.8480 ha         1 UNL       0.062284
     42 H14          7.3400     1.3820    -1.9520 ha         1 UNL       0.062273
     43 H15          7.6400    -0.4180    -0.2730 ha         1 UNL       0.062284
     44 H16          5.9650    -0.7540     1.5040 ha         1 UNL       0.062627
@<TRIPOS>BOND
     1     1     2 1   
     2     2     3 1   
     3     3     4 2   
     4     4     5 1   
     5     5     6 2   
     6     4     7 1   
     7     7     8 ar  
     8     8     9 ar  
     9     9    10 ar  
    10    10    11 ar  
    11    11    12 ar  
    12    11    13 1   
    13    13    14 2   
    14    14    15 1   
    15    13    16 1   
    16    16    17 1   
    17    17    18 2   
    18    18    19 1   
    19    19    20 1   
    20    19    21 1   
    21    21    22 1   
    22    22    23 ar  
    23    23    24 ar  
    24    24    25 ar  
    25    25    26 ar  
    26    26    27 ar  
    27     6     2 1   
    28    12     7 ar  
    29    15    10 1   
    30    20    16 2   
    31    27    22 ar  
    32     1    28 1   
    33     1    29 1   
    34     1    30 1   
    35     3    31 1   
    36     5    32 1   
    37     8    33 1   
    38     9    34 1   
    39    14    35 1   
    40    17    36 1   
    41    20    37 1   
    42    21    38 1   
    43    21    39 1   
    44    23    40 1   
    45    24    41 1   
    46    25    42 1   
    47    26    43 1   
    48    27    44 1   
@<TRIPOS>SUBSTRUCTURE
     1 UNL         1 TEMP              0 ****  ****    0 ROOT
