
     RDKit          3D

 41 45  0  0  0  0  0  0  0  0999 V2000
   22.6828   41.9485    6.9576 N   0  0  0  0  0  0  0  0  0  0  0  0
   22.2619   43.2473    6.8967 C   0  0  0  0  0  0  0  0  0  0  0  0
   21.6983   43.5328    8.1245 C   0  0  0  0  0  0  0  0  0  0  0  0
   21.8381   42.3224    8.8456 C   0  0  0  0  0  0  0  0  0  0  0  0
   22.4366   41.3606    8.1367 N   0  0  0  0  0  0  0  0  0  0  0  0
   21.1053   44.7928    8.5499 C   0  0  0  0  0  0  0  0  0  0  0  0
   21.0612   45.9076    7.7041 C   0  0  0  0  0  0  0  0  0  0  0  0
   20.4860   47.1025    8.1420 C   0  0  0  0  0  0  0  0  0  0  0  0
   19.9886   47.0719    9.4347 C   0  0  0  0  0  0  0  0  0  0  0  0
   20.0553   45.9394   10.2369 C   0  0  0  0  0  0  0  0  0  0  0  0
   20.6148   44.7759    9.8143 N   0  0  0  0  0  0  0  0  0  0  0  0
   19.4491   46.3017   11.4688 C   0  0  0  0  0  0  0  0  0  0  0  0
   19.0597   47.6182   11.3290 C   0  0  0  0  0  0  0  0  0  0  0  0
   19.3843   48.0946   10.0958 O   0  0  0  0  0  0  0  0  0  0  0  0
   19.2734   45.4566   12.6394 C   0  0  0  0  0  0  0  0  0  0  0  0
   19.6395   44.1023   12.7716 C   0  0  0  0  0  0  0  0  0  0  0  0
   19.3415   43.6086   13.9786 N   0  0  0  0  0  0  0  0  0  0  0  0
   18.7668   44.6507   14.6154 N   0  0  0  0  0  0  0  0  0  0  0  0
   18.7196   45.7883   13.8550 C   0  0  0  0  0  0  0  0  0  0  0  0
   18.3191   44.5048   15.9950 C   0  0  0  0  0  0  0  0  0  0  0  0
   16.8153   44.5566   16.1077 C   0  0  0  0  0  0  0  0  0  0  0  0
   16.1852   45.6043   16.7955 C   0  0  0  0  0  0  0  0  0  0  0  0
   14.7937   45.6456   16.9003 C   0  0  0  0  0  0  0  0  0  0  0  0
   14.0189   44.6418   16.3219 C   0  0  0  0  0  0  0  0  0  0  0  0
   14.6333   43.5944   15.6389 C   0  0  0  0  0  0  0  0  0  0  0  0
   16.0238   43.5499   15.5332 C   0  0  0  0  0  0  0  0  0  0  0  0
   23.1429   41.4021    6.2367 H   0  0  0  0  0  0  0  0  0  0  0  0
   22.4049   43.8261    5.9964 H   0  0  0  0  0  0  0  0  0  0  0  0
   21.5248   42.1108    9.8606 H   0  0  0  0  0  0  0  0  0  0  0  0
   21.4699   45.8668    6.6998 H   0  0  0  0  0  0  0  0  0  0  0  0
   20.4294   47.9891    7.5246 H   0  0  0  0  0  0  0  0  0  0  0  0
   18.5636   48.3241   11.9802 H   0  0  0  0  0  0  0  0  0  0  0  0
   20.1106   43.4504   12.0471 H   0  0  0  0  0  0  0  0  0  0  0  0
   18.2931   46.7042   14.2378 H   0  0  0  0  0  0  0  0  0  0  0  0
   18.6957   43.5521   16.3851 H   0  0  0  0  0  0  0  0  0  0  0  0
   18.7960   45.3092   16.5669 H   0  0  0  0  0  0  0  0  0  0  0  0
   16.7710   46.3968   17.2560 H   0  0  0  0  0  0  0  0  0  0  0  0
   14.3124   46.4610   17.4343 H   0  0  0  0  0  0  0  0  0  0  0  0
   12.9355   44.6752   16.4034 H   0  0  0  0  0  0  0  0  0  0  0  0
   14.0303   42.8112   15.1863 H   0  0  0  0  0  0  0  0  0  0  0  0
   16.4904   42.7265   14.9931 H   0  0  0  0  0  0  0  0  0  0  0  0
  1  2  1  0
  2  3  2  0
  3  4  1  0
  4  5  2  0
  3  6  1  0
  6  7  1  0
  7  8  2  0
  8  9  1  0
  9 10  2  0
 10 11  1  0
 10 12  1  0
 12 13  2  0
 13 14  1  0
 12 15  1  0
 15 16  1  0
 16 17  2  0
 17 18  1  0
 18 19  1  0
 18 20  1  0
 20 21  1  0
 21 22  2  0
 22 23  1  0
 23 24  2  0
 24 25  1  0
 25 26  2  0
  5  1  1  0
 11  6  2  0
 14  9  1  0
 19 15  2  0
 26 21  1  0
  1 27  1  0
  2 28  1  0
  4 29  1  0
  7 30  1  0
  8 31  1  0
 13 32  1  0
 16 33  1  0
 19 34  1  0
 20 35  1  0
 20 36  1  0
 22 37  1  0
 23 38  1  0
 24 39  1  0
 25 40  1  0
 26 41  1  0
M  END
$$$$
