
     RDKit          3D

 44 48  0  0  0  0  0  0  0  0999 V2000
   20.5790   42.8130   10.7670 C   0  0  0  0  0  0  0  0  0  0  0  0
   20.9250   42.0530    9.6520 C   0  0  0  0  0  0  0  0  0  0  0  0
   20.5540   42.4990    8.3920 C   0  0  0  0  0  0  0  0  0  0  0  0
   21.7350   41.2180   13.8820 N   0  0  0  0  0  0  0  0  0  0  0  0
   19.8640   43.6930    8.2890 C   0  0  0  0  0  0  0  0  0  0  0  0
   19.5480   44.3850    9.4610 C   0  0  0  0  0  0  0  0  0  0  0  0
   16.6850   47.8560   11.0290 N   0  0  0  0  0  0  0  0  0  0  0  0
   18.7400   45.5060    9.0920 C   0  0  0  0  0  0  0  0  0  0  0  0
   18.6860   45.4300    7.7400 C   0  0  0  0  0  0  0  0  0  0  0  0
   18.1610   46.4670   10.0220 C   0  0  0  0  0  0  0  0  0  0  0  0
   16.9690   47.2160    9.9130 C   0  0  0  0  0  0  0  0  0  0  0  0
   17.7050   47.5410   11.8670 N   0  0  0  0  0  0  0  0  0  0  0  0
   17.7610   48.1070   13.2120 C   0  0  0  0  0  0  0  0  0  0  0  0
   18.0020   47.0710   14.2870 C   0  0  0  0  0  0  0  0  0  0  0  0
   17.3340   45.8540   14.2810 C   0  0  0  0  0  0  0  0  0  0  0  0
   19.9010   43.9710   10.6810 N   0  0  0  0  0  0  0  0  0  0  0  0
   20.7080   42.4420   15.7170 C   0  0  0  0  0  0  0  0  0  0  0  0
   20.9490   42.2410   14.3000 N   0  0  0  0  0  0  0  0  0  0  0  0
   21.7040   41.3110   12.5720 C   0  0  0  0  0  0  0  0  0  0  0  0
   20.9170   42.3930   12.1340 C   0  0  0  0  0  0  0  0  0  0  0  0
   20.4580   42.9630   13.2860 C   0  0  0  0  0  0  0  0  0  0  0  0
   19.3610   44.3620    7.2110 O   0  0  0  0  0  0  0  0  0  0  0  0
   18.5910   46.7080   11.3090 C   0  0  0  0  0  0  0  0  0  0  0  0
   18.8350   47.3530   15.3550 C   0  0  0  0  0  0  0  0  0  0  0  0
   18.9470   46.4680   16.4220 C   0  0  0  0  0  0  0  0  0  0  0  0
   18.2600   45.2810   16.4090 C   0  0  0  0  0  0  0  0  0  0  0  0
   17.4810   44.9600   15.3240 C   0  0  0  0  0  0  0  0  0  0  0  0
   21.4842   41.1130    9.7690 H   0  0  0  0  0  0  0  0  0  0  0  0
   20.8034   41.9152    7.4937 H   0  0  0  0  0  0  0  0  0  0  0  0
   18.1469   46.1624    7.1212 H   0  0  0  0  0  0  0  0  0  0  0  0
   16.3509   47.2599    9.0042 H   0  0  0  0  0  0  0  0  0  0  0  0
   18.5775   48.8433   13.2473 H   0  0  0  0  0  0  0  0  0  0  0  0
   16.7814   48.5646   13.4141 H   0  0  0  0  0  0  0  0  0  0  0  0
   16.6792   45.5982   13.4349 H   0  0  0  0  0  0  0  0  0  0  0  0
   21.4247   41.8442   16.2992 H   0  0  0  0  0  0  0  0  0  0  0  0
   20.8336   43.5068   15.9629 H   0  0  0  0  0  0  0  0  0  0  0  0
   19.6831   42.1273   15.9629 H   0  0  0  0  0  0  0  0  0  0  0  0
   22.2320   40.6229   11.8954 H   0  0  0  0  0  0  0  0  0  0  0  0
   19.8084   43.8471   13.3657 H   0  0  0  0  0  0  0  0  0  0  0  0
   19.4914   46.2942   11.7866 H   0  0  0  0  0  0  0  0  0  0  0  0
   19.4152   48.2875   15.3603 H   0  0  0  0  0  0  0  0  0  0  0  0
   19.5886   46.7208   17.2790 H   0  0  0  0  0  0  0  0  0  0  0  0
   18.3323   44.5903   17.2621 H   0  0  0  0  0  0  0  0  0  0  0  0
   16.9715   43.9859   15.2854 H   0  0  0  0  0  0  0  0  0  0  0  0
  2  1  1  0
  3  2  2  0
  5  3  1  0
  6  5  2  0
  8  6  1  0
  9  8  2  0
 10  8  1  0
 11 10  1  0
 11  7  2  0
 12  7  1  0
 13 12  1  0
 14 13  1  0
 15 14  1  0
 16  1  2  0
 16  6  1  0
 18 17  1  0
 18  4  1  0
 19  4  2  0
 20  1  1  0
 20 19  1  0
 21 20  2  0
 21 18  1  0
 22  9  1  0
 22  5  1  0
 23 10  2  0
 23 12  1  0
 24 14  2  0
 25 24  1  0
 26 25  2  0
 27 15  2  0
 27 26  1  0
  2 28  1  0
  3 29  1  0
  9 30  1  0
 11 31  1  0
 13 32  1  0
 13 33  1  0
 15 34  1  0
 17 35  1  0
 17 36  1  0
 17 37  1  0
 19 38  1  0
 21 39  1  0
 23 40  1  0
 24 41  1  0
 25 42  1  0
 26 43  1  0
 27 44  1  0
M  END
$$$$
