@<TRIPOS>MOLECULE
*****
   44    48     1     0     0
SMALL
gas


@<TRIPOS>ATOM
      1 C           20.5790    42.8130    10.7670 ca         1 UNL       0.074057
      2 C1          20.9250    42.0530     9.6520 ca         1 UNL      -0.032976
      3 C2          20.5540    42.4990     8.3920 ca         1 UNL      -0.026842
      4 N           21.7350    41.2180    13.8820 nc         1 UNL      -0.189682
      5 C3          19.8640    43.6930     8.2890 ca         1 UNL       0.107646
      6 C4          19.5480    44.3850     9.4610 ca         1 UNL       0.104386
      7 N1          16.6850    47.8560    11.0290 nc         1 UNL      -0.189147
      8 C5          18.7400    45.5060     9.0920 cd         1 UNL       0.036465
      9 C6          18.6860    45.4300     7.7400 cc         1 UNL       0.056180
     10 C7          18.1610    46.4670    10.0220 cd         1 UNL       0.021593
     11 C8          16.9690    47.2160     9.9130 cd         1 UNL       0.054564
     12 N2          17.7050    47.5410    11.8670 na         1 UNL      -0.227791
     13 C9          17.7610    48.1070    13.2120 c3         1 UNL       0.058872
     14 C10         18.0020    47.0710    14.2870 ca         1 UNL      -0.028629
     15 C11         17.3340    45.8540    14.2810 ca         1 UNL      -0.057376
     16 N3          19.9010    43.9710    10.6810 nb         1 UNL      -0.244800
     17 C12         20.7080    42.4420    15.7170 c3         1 UNL       0.022551
     18 N4          20.9490    42.2410    14.3000 na         1 UNL      -0.235229
     19 C13         21.7040    41.3110    12.5720 cd         1 UNL       0.055956
     20 C14         20.9170    42.3930    12.1340 cd         1 UNL       0.035759
     21 C15         20.4580    42.9630    13.2860 cc         1 UNL       0.025110
     22 O           19.3610    44.3620     7.2110 os         1 UNL      -0.315141
     23 C16         18.5910    46.7080    11.3090 cc         1 UNL       0.024417
     24 C17         18.8350    47.3530    15.3550 ca         1 UNL      -0.057376
     25 C18         18.9470    46.4680    16.4220 ca         1 UNL      -0.061937
     26 C19         18.2600    45.2810    16.4090 ca         1 UNL      -0.062251
     27 C20         17.4810    44.9600    15.3240 ca         1 UNL      -0.061937
     28 H           21.4840    41.1130     9.7690 ha         1 UNL       0.064679
     29 H1          20.8030    41.9150     7.4940 ha         1 UNL       0.065226
     30 H2          18.1470    46.1620     7.1210 h4         1 UNL       0.090933
     31 H3          16.3510    47.2600     9.0040 h4         1 UNL       0.086437
     32 H4          18.5780    48.8430    13.2470 h1         1 UNL       0.054127
     33 H5          16.7810    48.5650    13.4140 h1         1 UNL       0.054127
     34 H6          16.6790    45.5980    13.4350 ha         1 UNL       0.062627
     35 H7          21.4250    41.8440    16.2990 h1         1 UNL       0.045354
     36 H8          20.8340    43.5070    15.9630 h1         1 UNL       0.045354
     37 H9          19.6830    42.1270    15.9630 h1         1 UNL       0.045354
     38 H10         22.2320    40.6230    11.8950 h4         1 UNL       0.086494
     39 H11         19.8080    43.8470    13.3660 h4         1 UNL       0.081705
     40 H12         19.4910    46.2940    11.7870 h4         1 UNL       0.081676
     41 H13         19.4150    48.2880    15.3600 ha         1 UNL       0.062627
     42 H14         19.5890    46.7210    17.2790 ha         1 UNL       0.062284
     43 H15         18.3320    44.5900    17.2620 ha         1 UNL       0.062273
     44 H16         16.9710    43.9860    15.2850 ha         1 UNL       0.062284
@<TRIPOS>BOND
     1     2     1 ar  
     2     3     2 ar  
     3     5     3 ar  
     4     6     5 ar  
     5     8     6 1   
     6     9     8 2   
     7    10     8 1   
     8    11    10 1   
     9    11     7 2   
    10    12     7 1   
    11    13    12 1   
    12    14    13 1   
    13    15    14 ar  
    14    16     1 ar  
    15    16     6 ar  
    16    18    17 1   
    17    18     4 1   
    18    19     4 2   
    19    20     1 1   
    20    20    19 1   
    21    21    20 2   
    22    21    18 1   
    23    22     9 1   
    24    22     5 1   
    25    23    10 2   
    26    23    12 1   
    27    24    14 ar  
    28    25    24 ar  
    29    26    25 ar  
    30    27    15 ar  
    31    27    26 ar  
    32     2    28 1   
    33     3    29 1   
    34     9    30 1   
    35    11    31 1   
    36    13    32 1   
    37    13    33 1   
    38    15    34 1   
    39    17    35 1   
    40    17    36 1   
    41    17    37 1   
    42    19    38 1   
    43    21    39 1   
    44    23    40 1   
    45    24    41 1   
    46    25    42 1   
    47    26    43 1   
    48    27    44 1   
@<TRIPOS>SUBSTRUCTURE
     1 UNL         1 TEMP              0 ****  ****    0 ROOT
