@<TRIPOS>MOLECULE
H3E_crystal.pdb
 27 31 0 0 0
SMALL
GASTEIGER

@<TRIPOS>ATOM
      1   C1       20.5790   42.8130   10.7670 C.ar    1  UNL1        0.0845
      2   C2       20.9250   42.0530    9.6520 C.ar    1  UNL1        0.0224
      3   C3       20.5540   42.4990    8.3920 C.ar    1  UNL1        0.0406
      4   N4       21.7350   41.2180   13.8820 N.ar    1  UNL1       -0.1675
      5   C5       19.8640   43.6930    8.2890 C.ar    1  UNL1        0.1630
      6   C6       19.5480   44.3850    9.4610 C.ar    1  UNL1        0.1188
      7   N7       16.6850   47.8560   11.0290 N.ar    1  UNL1       -0.1673
      8   C8       18.7400   45.5060    9.0920 C.ar    1  UNL1        0.0613
      9   C9       18.6860   45.4300    7.7400 C.ar    1  UNL1        0.1812
     10  C10       18.1610   46.4670   10.0220 C.ar    1  UNL1        0.0442
     11  C11       16.9690   47.2160    9.9130 C.ar    1  UNL1        0.1218
     12  N12       17.7050   47.5410   11.8670 N.ar    1  UNL1       -0.2449
     13  C13       17.7610   48.1070   13.2120 C.3     1  UNL1        0.1538
     14  C14       18.0020   47.0710   14.2870 C.ar    1  UNL1        0.0021
     15  C15       17.3340   45.8540   14.2810 C.ar    1  UNL1       -0.0023
     16  N16       19.9010   43.9710   10.6810 N.ar    1  UNL1       -0.2421
     17  C17       20.7080   42.4420   15.7170 C.3     1  UNL1        0.1538
     18  N18       20.9490   42.2410   14.3000 N.ar    1  UNL1       -0.2473
     19  C19       21.7040   41.3110   12.5720 C.ar    1  UNL1        0.1231
     20  C20       20.9170   42.3930   12.1340 C.ar    1  UNL1        0.0573
     21  C21       20.4580   42.9630   13.2860 C.ar    1  UNL1        0.0982
     22  O22       19.3610   44.3620    7.2110 O.2     1  UNL1       -0.4488
     23  C23       18.5910   46.7080   11.3090 C.ar    1  UNL1        0.0971
     24  C24       18.8350   47.3530   15.3550 C.ar    1  UNL1       -0.0023
     25  C25       18.9470   46.4680   16.4220 C.ar    1  UNL1       -0.0003
     26  C26       18.2600   45.2810   16.4090 C.ar    1  UNL1       -0.0000
     27  C27       17.4810   44.9600   15.3240 C.ar    1  UNL1       -0.0003
@<TRIPOS>BOND
     1    22     9   ar
     2    22     5   ar
     3     9     8   ar
     4     5     3   ar
     5     5     6   ar
     6     3     2   ar
     7     8     6   ar
     8     8    10    1
     9     6    16   ar
    10     2     1   ar
    11    11    10   ar
    12    11     7   ar
    13    10    23   ar
    14    16     1   ar
    15     1    20    1
    16     7    12   ar
    17    23    12   ar
    18    12    13    1
    19    20    19   ar
    20    20    21   ar
    21    19     4   ar
    22    13    14    1
    23    21    18   ar
    24     4    18   ar
    25    15    14   ar
    26    15    27   ar
    27    14    24   ar
    28    18    17    1
    29    27    26   ar
    30    24    25   ar
    31    26    25   ar
