@<TRIPOS>MOLECULE
*****
 41 45 0 0 0
SMALL
GASTEIGER

@<TRIPOS>ATOM
      1 N          22.6828   41.9485    6.9576 N.ar    1  UNL1       -0.2841
      2 C          22.2619   43.2473    6.8967 C.ar    1  UNL1        0.0315
      3 C          21.6983   43.5328    8.1245 C.ar    1  UNL1        0.0375
      4 C          21.8381   42.3224    8.8456 C.ar    1  UNL1        0.0583
      5 N          22.4366   41.3606    8.1367 N.ar    1  UNL1       -0.1817
      6 C          21.1053   44.7928    8.5499 C.ar    1  UNL1        0.0749
      7 C          21.0612   45.9076    7.7041 C.ar    1  UNL1       -0.0321
      8 C          20.4860   47.1025    8.1420 C.ar    1  UNL1       -0.0152
      9 C          19.9886   47.0719    9.4347 C.ar    1  UNL1        0.1536
     10 C          20.0553   45.9394   10.2369 C.ar    1  UNL1        0.1173
     11 N          20.6148   44.7759    9.8143 N.ar    1  UNL1       -0.2428
     12 C          19.4491   46.3017   11.4688 C.ar    1  UNL1        0.0488
     13 C          19.0597   47.6182   11.3290 C.ar    1  UNL1        0.1025
     14 O          19.3843   48.0946   10.0958 O.2     1  UNL1       -0.4607
     15 C          19.2734   45.4566   12.6394 C.ar    1  UNL1        0.0246
     16 C          19.6395   44.1023   12.7716 C.ar    1  UNL1        0.0573
     17 N          19.3415   43.6086   13.9786 N.ar    1  UNL1       -0.1787
     18 N          18.7668   44.6507   14.6154 N.ar    1  UNL1       -0.2665
     19 C          18.7196   45.7883   13.8550 C.ar    1  UNL1        0.0337
     20 C          18.3191   44.5048   15.9950 C.3     1  UNL1        0.0665
     21 C          16.8153   44.5566   16.1077 C.ar    1  UNL1       -0.0261
     22 C          16.1852   45.6043   16.7955 C.ar    1  UNL1       -0.0568
     23 C          14.7937   45.6456   16.9003 C.ar    1  UNL1       -0.0614
     24 C          14.0189   44.6418   16.3219 C.ar    1  UNL1       -0.0617
     25 C          14.6333   43.5944   15.6389 C.ar    1  UNL1       -0.0614
     26 C          16.0238   43.5499   15.5332 C.ar    1  UNL1       -0.0568
     27 H          23.1429   41.4021    6.2367 H       1  UNL1        0.1882
     28 H          22.4049   43.8261    5.9964 H       1  UNL1        0.0830
     29 H          21.5248   42.1108    9.8606 H       1  UNL1        0.0854
     30 H          21.4699   45.8668    6.6998 H       1  UNL1        0.0640
     31 H          20.4294   47.9891    7.5246 H       1  UNL1        0.0656
     32 H          18.5636   48.3241   11.9802 H       1  UNL1        0.1036
     33 H          20.1106   43.4504   12.0471 H       1  UNL1        0.0854
     34 H          18.2931   46.7042   14.2378 H       1  UNL1        0.0832
     35 H          18.6957   43.5521   16.3851 H       1  UNL1        0.0558
     36 H          18.7960   45.3092   16.5669 H       1  UNL1        0.0558
     37 H          16.7710   46.3968   17.2560 H       1  UNL1        0.0621
     38 H          14.3124   46.4610   17.4343 H       1  UNL1        0.0618
     39 H          12.9355   44.6752   16.4034 H       1  UNL1        0.0618
     40 H          14.0303   42.8112   15.1863 H       1  UNL1        0.0618
     41 H          16.4904   42.7265   14.9931 H       1  UNL1        0.0621
@<TRIPOS>BOND
     1     1     2   ar
     2     2     3   ar
     3     3     4   ar
     4     4     5   ar
     5     3     6    1
     6     6     7   ar
     7     7     8   ar
     8     8     9   ar
     9     9    10   ar
    10    10    11   ar
    11    10    12   ar
    12    12    13   ar
    13    13    14   ar
    14    12    15    1
    15    15    16   ar
    16    16    17   ar
    17    17    18   ar
    18    18    19   ar
    19    18    20    1
    20    20    21    1
    21    21    22   ar
    22    22    23   ar
    23    23    24   ar
    24    24    25   ar
    25    25    26   ar
    26     5     1   ar
    27    11     6   ar
    28    14     9   ar
    29    19    15   ar
    30    26    21   ar
    31     1    27    1
    32     2    28    1
    33     4    29    1
    34     7    30    1
    35     8    31    1
    36    13    32    1
    37    16    33    1
    38    19    34    1
    39    20    35    1
    40    20    36    1
    41    22    37    1
    42    23    38    1
    43    24    39    1
    44    25    40    1
    45    26    41    1
