@<TRIPOS>MOLECULE
*****
   41    45     1     0     0
SMALL
gas


@<TRIPOS>ATOM
      1 N           22.6830    41.9490     6.9580 na         1 UNL      -0.245202
      2 C           22.2620    43.2470     6.8970 cc         1 UNL       0.022194
      3 C1          21.6980    43.5330     8.1240 cd         1 UNL       0.035497
      4 C2          21.8380    42.3220     8.8460 cd         1 UNL       0.055708
      5 N1          22.4370    41.3610     8.1370 nc         1 UNL      -0.192169
      6 C3          21.1050    44.7930     8.5500 ca         1 UNL       0.074047
      7 C4          21.0610    45.9080     7.7040 ca         1 UNL      -0.032976
      8 C5          20.4860    47.1020     8.1420 ca         1 UNL      -0.026842
      9 C6          19.9890    47.0720     9.4350 ca         1 UNL       0.107646
     10 C7          20.0550    45.9390    10.2370 ca         1 UNL       0.104386
     11 N2          20.6150    44.7760     9.8140 nb         1 UNL      -0.244800
     12 C8          19.4490    46.3020    11.4690 cc         1 UNL       0.036465
     13 C9          19.0600    47.6180    11.3290 cd         1 UNL       0.056180
     14 O           19.3840    48.0950    10.0960 os         1 UNL      -0.315141
     15 C10         19.2730    45.4570    12.6390 cc         1 UNL       0.021593
     16 C11         19.6400    44.1020    12.7720 cc         1 UNL       0.054564
     17 N3          19.3410    43.6090    13.9790 nd         1 UNL      -0.189147
     18 N4          18.7670    44.6510    14.6150 na         1 UNL      -0.227791
     19 C12         18.7200    45.7880    13.8550 cd         1 UNL       0.024417
     20 C13         18.3190    44.5050    15.9950 c3         1 UNL       0.058872
     21 C14         16.8150    44.5570    16.1080 ca         1 UNL      -0.028629
     22 C15         16.1850    45.6040    16.7960 ca         1 UNL      -0.057376
     23 C16         14.7940    45.6460    16.9000 ca         1 UNL      -0.061937
     24 C17         14.0190    44.6420    16.3220 ca         1 UNL      -0.062251
     25 C18         14.6330    43.5940    15.6390 ca         1 UNL      -0.061937
     26 C19         16.0240    43.5500    15.5330 ca         1 UNL      -0.057376
     27 H           23.1430    41.4020     6.2370 hn         1 UNL       0.174786
     28 H1          22.4050    43.8260     5.9960 h4         1 UNL       0.081435
     29 H2          21.5250    42.1110     9.8610 h4         1 UNL       0.086484
     30 H3          21.4700    45.8670     6.7000 ha         1 UNL       0.064679
     31 H4          20.4290    47.9890     7.5250 ha         1 UNL       0.065226
     32 H5          18.5640    48.3240    11.9800 h4         1 UNL       0.090933
     33 H6          20.1110    43.4500    12.0470 h4         1 UNL       0.086437
     34 H7          18.2930    46.7040    14.2380 h4         1 UNL       0.081676
     35 H8          18.6960    43.5520    16.3850 h1         1 UNL       0.054127
     36 H9          18.7960    45.3090    16.5670 h1         1 UNL       0.054127
     37 H10         16.7710    46.3970    17.2560 ha         1 UNL       0.062627
     38 H11         14.3120    46.4610    17.4340 ha         1 UNL       0.062284
     39 H12         12.9350    44.6750    16.4030 ha         1 UNL       0.062273
     40 H13         14.0300    42.8110    15.1860 ha         1 UNL       0.062284
     41 H14         16.4900    42.7270    14.9930 ha         1 UNL       0.062627
@<TRIPOS>BOND
     1     1     2 1   
     2     2     3 2   
     3     3     4 1   
     4     4     5 2   
     5     3     6 1   
     6     6     7 ar  
     7     7     8 ar  
     8     8     9 ar  
     9     9    10 ar  
    10    10    11 ar  
    11    10    12 1   
    12    12    13 2   
    13    13    14 1   
    14    12    15 1   
    15    15    16 1   
    16    16    17 2   
    17    17    18 1   
    18    18    19 1   
    19    18    20 1   
    20    20    21 1   
    21    21    22 ar  
    22    22    23 ar  
    23    23    24 ar  
    24    24    25 ar  
    25    25    26 ar  
    26     5     1 1   
    27    11     6 ar  
    28    14     9 1   
    29    19    15 2   
    30    26    21 ar  
    31     1    27 1   
    32     2    28 1   
    33     4    29 1   
    34     7    30 1   
    35     8    31 1   
    36    13    32 1   
    37    16    33 1   
    38    19    34 1   
    39    20    35 1   
    40    20    36 1   
    41    22    37 1   
    42    23    38 1   
    43    24    39 1   
    44    25    40 1   
    45    26    41 1   
@<TRIPOS>SUBSTRUCTURE
     1 UNL         1 TEMP              0 ****  ****    0 ROOT
